HEBGAX
  --CCDC--070218    3D                              

 47 52  0  0  0  0  0  0  0  0999 V2000
    5.0286    3.0058    2.6962 C      0
    5.0937    3.5968    4.0566 C      0
    6.1606    4.1538    4.7595 C      0
    5.9244    4.7420    5.9958 C      0
    4.6440    4.7664    6.5419 C      0
    3.5691    4.2574    5.8360 C      0
    3.7945    3.7043    4.5781 C      0
    2.8540    3.2129    3.5729 C      0
    1.4775    3.0580    3.6470 C      0
    0.8062    2.5133    2.5621 C      0
    1.5115    2.1280    1.4259 C      0
    2.8901    2.2809    1.3432 C      0
    3.5779    2.8374    2.4214 C      0
    6.0583    2.6974    1.8677 C      0
    7.4950    2.5711    2.1669 C      0
    8.1611    2.0326    3.3138 C      0
    7.4900    1.4455    4.4161 C      0
    8.1968    0.9241    5.4667 C      0
    9.6042    0.9698    5.4843 C      0
   10.2831    1.4963    4.4257 C      0
    9.5887    2.0194    3.3003 C      0
   10.2862    2.4850    2.1552 C      0
    9.6240    2.9006    1.0289 C      0
    8.2202    2.9191    1.0373 C      0
    7.2865    3.2690   -0.0929 C      0
    5.9578    2.6059    0.3472 C      0
    5.8889    1.1666   -0.1691 C      0
    7.0798    4.1463    4.3832 H      0
    6.6668    5.1624    6.4843 H      0
    4.4909    5.1753    7.4385 H      0
    2.6544    4.3169    6.2057 H      0
    1.0108    3.3049    4.4814 H      0
   -0.1374    2.3982    2.5901 H      0
    1.0298    1.7511    0.6640 H      0
    3.3485    1.9843    0.5274 H      0
    6.5114    1.4152    4.4013 H      0
    7.7041    0.5113    6.1947 H      0
   10.0840    0.6266    6.2420 H      0
   11.2725    1.5129    4.4020 H      0
   11.2680    2.4597    2.1769 H      0
   10.1109    3.1562    0.2165 H      0
    7.1702    4.2394   -0.1446 H      0
    7.6030    2.9410   -0.9820 H      0
    5.1675    3.0992    0.0149 H      0
    6.7499    0.6934    0.0389 H      0
    5.1312    0.6544    0.2303 H      0
    5.7912    1.1758   -1.1631 H      0
  1  2  1
  2  3  4
  3  4  4
  4  5  4
  5  6  4
  6  7  4
  7  2  4
  8  7  1
  9  8  4
 10  9  4
 11 10  4
 12 11  4
 13  1  1
 14  1  2
 15 14  1
 16 15  4
 17 16  4
 18 17  4
 19 18  4
 20 19  4
 21 16  4
 22 21  4
 23 22  4
 24 15  4
 25 24  1
 26 14  1
 27 26  1
 28  3  1
 29  4  1
 30  5  1
 31  6  1
 32  9  1
 33 10  1
 34 11  1
 35 12  1
 36 17  1
 37 18  1
 38 19  1
 39 20  1
 40 22  1
 41 23  1
 42 25  1
 43 25  1
 44 26  1
 45 27  1
 46 27  1
 47 27  1
  8 13  4
 12 13  4
 20 21  4
 23 24  4
 25 26  1
M  END
$$$$
